Version 4
SHEET 1 5132 3196
WIRE 1344 864 560 864
WIRE 2032 864 1344 864
WIRE 2688 864 2032 864
WIRE 3216 864 2688 864
WIRE 3216 960 3216 864
WIRE 2288 1008 2096 1008
WIRE 1920 1072 1680 1072
WIRE 1968 1072 1920 1072
WIRE 3216 1072 3216 1040
WIRE 3216 1072 2160 1072
WIRE 3360 1072 3216 1072
WIRE 240 1088 160 1088
WIRE 688 1088 304 1088
WIRE 1968 1104 1968 1072
WIRE 2032 1104 2032 864
WIRE 2096 1104 2096 1008
WIRE 2160 1104 2160 1072
WIRE 3360 1104 3360 1072
WIRE 1680 1120 1680 1072
WIRE 1408 1152 1248 1152
WIRE 1344 1200 1344 864
WIRE 3216 1200 3216 1072
WIRE 560 1216 560 864
WIRE 1408 1216 1408 1152
WIRE 1408 1216 1376 1216
WIRE 688 1232 688 1088
WIRE 688 1232 592 1232
WIRE 912 1232 688 1232
WIRE 1248 1232 1248 1152
WIRE 1248 1232 992 1232
WIRE 1312 1232 1248 1232
WIRE 2288 1232 2288 1008
WIRE 2288 1232 2192 1232
WIRE 32 1248 -912 1248
WIRE 160 1248 160 1088
WIRE 160 1248 32 1248
WIRE 240 1248 160 1248
WIRE 384 1248 320 1248
WIRE 528 1248 384 1248
WIRE 1488 1248 1376 1248
WIRE 1680 1248 1680 1200
WIRE 1680 1248 1488 1248
WIRE 688 1264 592 1264
WIRE 1680 1264 1680 1248
WIRE 1488 1328 1488 1248
WIRE 1488 1328 1088 1328
WIRE 160 1360 160 1248
WIRE 240 1360 160 1360
WIRE 384 1360 384 1248
WIRE 384 1360 304 1360
WIRE 1680 1376 1680 1344
WIRE 1968 1376 1968 1360
WIRE 1968 1376 1680 1376
WIRE 688 1408 688 1264
WIRE 560 1440 560 1280
WIRE 1344 1440 1344 1264
WIRE 1344 1440 560 1440
WIRE 2160 1440 2160 1360
WIRE 2160 1440 1344 1440
WIRE 3216 1440 3216 1280
WIRE 3216 1440 2160 1440
WIRE 2688 1568 2688 864
WIRE 3728 1568 2688 1568
WIRE 3776 1680 3664 1680
WIRE 3936 1680 3840 1680
WIRE 336 1744 -160 1744
WIRE 624 1744 336 1744
WIRE 736 1744 624 1744
WIRE 896 1744 816 1744
WIRE 1056 1744 896 1744
WIRE 1328 1744 1056 1744
WIRE -160 1776 -160 1744
WIRE 336 1808 336 1744
WIRE 2384 1824 2336 1824
WIRE 2512 1824 2464 1824
WIRE 2544 1824 2512 1824
WIRE 2784 1824 2624 1824
WIRE 3520 1824 3456 1824
WIRE 3664 1824 3664 1680
WIRE 3664 1824 3600 1824
WIRE 3776 1824 3664 1824
WIRE 3936 1824 3936 1680
WIRE 3936 1824 3856 1824
WIRE 2336 1856 2336 1824
WIRE 3456 1872 3456 1824
WIRE 1472 1888 1440 1888
WIRE 1632 1888 1552 1888
WIRE 1696 1888 1632 1888
WIRE 1952 1888 1776 1888
WIRE 2032 1888 2032 1360
WIRE 2032 1888 1952 1888
WIRE 2512 1904 2512 1824
WIRE 2544 1904 2512 1904
WIRE 2784 1904 2784 1824
WIRE 2784 1904 2608 1904
WIRE -160 1968 -160 1856
WIRE -160 1968 -480 1968
WIRE 3728 1968 3728 1568
WIRE 1536 1984 1232 1984
WIRE 1632 1984 1632 1888
WIRE 1632 1984 1536 1984
WIRE 2688 1984 2688 1568
WIRE 3664 1984 3664 1824
WIRE 3696 1984 3664 1984
WIRE 1056 2000 1056 1744
WIRE 2512 2000 2512 1904
WIRE 2656 2000 2512 2000
WIRE 3824 2000 3760 2000
WIRE 3936 2000 3936 1824
WIRE 3936 2000 3824 2000
WIRE 4016 2000 3936 2000
WIRE 4096 2000 4016 2000
WIRE 4240 2000 4176 2000
WIRE 4352 2000 4240 2000
WIRE 1328 2016 1328 1744
WIRE 1440 2016 1440 1888
WIRE 1440 2016 1328 2016
WIRE 2784 2016 2784 1904
WIRE 2784 2016 2720 2016
WIRE 2928 2016 2784 2016
WIRE 3056 2016 2992 2016
WIRE 3248 2016 3056 2016
WIRE 3392 2016 3328 2016
WIRE 3456 2016 3392 2016
WIRE 3600 2016 3536 2016
WIRE 3696 2016 3600 2016
WIRE -480 2032 -480 1968
WIRE 2288 2032 2288 1232
WIRE 2416 2032 2288 2032
WIRE 2544 2032 2480 2032
WIRE 2656 2032 2544 2032
WIRE 1232 2064 1232 1984
WIRE 1264 2064 1232 2064
WIRE 1536 2064 1536 1984
WIRE 1536 2064 1504 2064
WIRE -160 2096 -160 1968
WIRE 4240 2096 4240 2000
WIRE 896 2112 896 1744
WIRE 3600 2112 3600 2016
WIRE -912 2128 -912 1248
WIRE -704 2128 -912 2128
WIRE -480 2128 -480 2112
WIRE -480 2128 -624 2128
WIRE 2544 2128 2544 2032
WIRE 3056 2128 3056 2016
WIRE -480 2144 -480 2128
WIRE 1328 2144 1328 2112
WIRE 1440 2144 1440 2112
WIRE 1440 2144 1328 2144
WIRE 800 2176 800 2128
WIRE 1328 2176 1328 2144
WIRE 1440 2176 1440 2144
WIRE 1728 2176 1728 2144
WIRE 4240 2208 4240 2160
WIRE 1264 2224 1232 2224
WIRE 1536 2224 1504 2224
WIRE 3600 2224 3600 2176
WIRE 2544 2256 2544 2208
WIRE 3056 2256 3056 2208
WIRE 1056 2272 1056 2064
WIRE 1440 2272 1328 2272
WIRE -480 2304 -480 2224
WIRE -160 2304 -160 2176
WIRE -160 2304 -480 2304
WIRE 1232 2304 1232 2224
WIRE 1536 2304 1536 2224
WIRE 1536 2304 1232 2304
WIRE 1632 2304 1536 2304
WIRE 2160 2304 2160 1440
WIRE 2688 2304 2688 2048
WIRE 2688 2304 2160 2304
WIRE 3728 2304 3728 2032
WIRE 3728 2304 2688 2304
WIRE 3392 2384 3392 2016
WIRE 3568 2384 3392 2384
WIRE 3824 2384 3824 2000
WIRE 3824 2384 3632 2384
WIRE 336 2400 336 1872
WIRE 1440 2400 1440 2272
WIRE 1472 2400 1440 2400
WIRE 1632 2400 1632 2304
WIRE 1632 2400 1552 2400
WIRE 1696 2400 1632 2400
WIRE 1936 2400 1776 2400
WIRE 2096 2400 2096 1360
WIRE 2096 2400 1936 2400
WIRE -160 2432 -160 2304
WIRE -160 2544 -160 2512
WIRE 336 2544 336 2464
WIRE 336 2544 -160 2544
WIRE 624 2544 336 2544
WIRE 736 2544 624 2544
WIRE 896 2544 896 2176
WIRE 896 2544 816 2544
WIRE 1056 2544 1056 2336
WIRE 1056 2544 896 2544
WIRE 1328 2544 1328 2272
WIRE 1328 2544 1056 2544
FLAG 1728 2176 0
FLAG 624 1744 CH1-
FLAG 2288 1232 out_114
FLAG 3360 1104 0
FLAG 1952 1888 in-
FLAG 1936 2400 in+
FLAG 688 1408 0
FLAG 32 1248 R_LEG
FLAG 1920 1072 loop1
FLAG 624 2544 CH1+
FLAG 800 2176 0
FLAG 2336 1856 0
FLAG 3600 2224 0
FLAG 4240 2208 0
FLAG 4352 2000 ADC0
FLAG 3456 1872 0
FLAG 3056 2256 0
FLAG 2544 2256 0
FLAG 4016 2000 ADIN0
FLAG -896 3168 0
SYMBOL RES 720 1760 R270
WINDOW 0 32 56 VTop 0
WINDOW 3 0 56 VBottom 0
SYMATTR InstName R204
SYMATTR Value 2K2
SYMBOL res 1456 1904 R270
WINDOW 0 32 56 VTop 0
WINDOW 3 0 56 VBottom 0
SYMATTR InstName R212
SYMATTR Value 2K2
SYMBOL res 1680 1904 R270
WINDOW 0 32 56 VTop 0
WINDOW 3 0 56 VBottom 0
SYMATTR InstName R211
SYMATTR Value 2K2
SYMBOL cap 1040 2000 R0
SYMATTR InstName C207
SYMATTR Value 100pF
SYMBOL PNP 1264 2016 R0
WINDOW 0 52 52 Left 0
WINDOW 3 -116 72 Left 0
SYMATTR InstName Q202
SYMATTR Value 2N3906
SYMBOL NPN 1504 2016 M0
WINDOW 0 32 48 Left 0
WINDOW 3 -124 76 Left 0
SYMATTR InstName Q206
SYMATTR Value 2N3904
SYMBOL RES -144 1872 R180
WINDOW 0 36 76 Left 0
WINDOW 3 36 40 Left 0
SYMATTR InstName Ruser-
SYMATTR Value 10k
SYMBOL INA114 2064 1232 R270
WINDOW 0 36 0 Center 0
WINDOW 3 -40 4 Center 0
SYMATTR InstName U1
SYMBOL res 1664 1104 R0
SYMATTR InstName R216
SYMATTR Value 2k2
SYMBOL voltage 3216 944 R0
WINDOW 39 0 0 Left 0
WINDOW 123 0 0 Left 0
WINDOW 3 42 54 Left 0
SYMATTR Value 3.5V
SYMATTR InstName V1
SYMBOL voltage 3216 1184 R0
WINDOW 39 0 0 Left 0
WINDOW 123 0 0 Left 0
WINDOW 3 42 55 Left 0
SYMATTR Value 2V
SYMATTR InstName V2
SYMBOL res 1664 1248 R0
SYMATTR InstName R217
SYMATTR Value {R217}
SYMBOL RES 720 2528 M90
WINDOW 0 0 56 VBottom 0
WINDOW 3 32 56 VTop 0
SYMATTR InstName R203
SYMATTR Value 2K2
SYMBOL res 1456 2384 M90
WINDOW 0 0 56 VBottom 0
WINDOW 3 32 56 VTop 0
SYMATTR InstName R209
SYMATTR Value 2K2
SYMBOL res 1680 2384 M90
WINDOW 0 0 56 VBottom 0
WINDOW 3 32 56 VTop 0
SYMATTR InstName R210
SYMATTR Value 2K2
SYMBOL cap 1040 2336 M180
WINDOW 0 24 64 Left 0
WINDOW 3 24 8 Left 0
SYMATTR InstName C206
SYMATTR Value {C206}
SYMBOL PNP 1264 2272 M180
WINDOW 0 52 52 Left 0
WINDOW 3 -120 64 Left 0
SYMATTR InstName Q204
SYMATTR Value 2N3906
SYMBOL NPN 1504 2272 R180
WINDOW 0 32 48 Left 0
WINDOW 3 -124 80 Left 0
SYMATTR InstName Q208
SYMATTR Value 2N3904
SYMBOL TLC272_5_2 560 1184 M0
SYMATTR InstName U2
SYMBOL cap 880 2112 R0
SYMATTR InstName C210
SYMATTR Value {C210}
SYMBOL res 336 1232 R90
WINDOW 0 0 56 VBottom 0
WINDOW 3 32 56 VTop 0
SYMATTR InstName R213
SYMATTR Value 200k
SYMBOL cap 240 1376 R270
WINDOW 0 32 32 VTop 0
WINDOW 3 0 32 VBottom 0
SYMATTR InstName C212
SYMATTR Value 1nF
SYMBOL RES -144 2528 R180
WINDOW 0 36 76 Left 0
WINDOW 3 36 40 Left 0
SYMATTR InstName Ruser+
SYMATTR Value 20k
SYMBOL res -496 2016 R0
SYMATTR InstName Rleg
SYMATTR Value 20k
SYMBOL TLC272_5_2 1344 1168 M0
WINDOW 3 15 -42 Left 0
SYMATTR InstName U3
SYMBOL cap 320 1808 R0
SYMATTR InstName C_cable_shielded-
SYMATTR Value 150pF
SYMBOL cap 320 2400 R0
SYMATTR InstName C_cable_shielded+
SYMATTR Value 150pF
SYMBOL voltage -160 2192 R180
WINDOW 0 32 56 VTop 0
WINDOW 3 -54 56 VBottom 0
WINDOW 39 -32 56 VBottom 0
WINDOW 123 -32 56 VBottom 0
SYMATTR InstName V_brain
SYMATTR Value SINE(0.1mV -1mV 20)
SYMATTR Value2 AC 0
SYMBOL res 1008 1216 R90
WINDOW 0 0 56 VBottom 0
WINDOW 3 32 56 VTop 0
SYMATTR InstName R218
SYMATTR Value 10k
SYMBOL TLC272_5_2 2688 1952 R0
WINDOW 3 16 -8 Left 0
SYMATTR InstName IC205A
SYMBOL TLC272_5_2 3728 1936 R0
WINDOW 3 -108 124 Left 0
SYMATTR InstName IC205B
SYMBOL cap 2416 2048 R270
WINDOW 0 32 32 VTop 0
WINDOW 3 0 32 VBottom 0
SYMATTR InstName C221
SYMATTR Value 1µ
SYMBOL res 2528 2112 R0
SYMATTR InstName R226
SYMATTR Value 1Meg
SYMBOL res 2480 1808 R90
WINDOW 0 0 56 VBottom 0
WINDOW 3 32 56 VTop 0
SYMATTR InstName R222P203
SYMATTR Value 2.56k
SYMBOL res 2640 1808 R90
WINDOW 0 0 56 VBottom 0
WINDOW 3 32 56 VTop 0
SYMATTR InstName R225
SYMATTR Value 100k
SYMBOL cap 2928 2032 R270
WINDOW 0 32 32 VTop 0
WINDOW 3 0 32 VBottom 0
SYMATTR InstName C228
SYMATTR Value 1µ
SYMBOL res 3040 2112 R0
SYMATTR InstName R236
SYMATTR Value 1Meg
SYMBOL res 3344 2000 R90
WINDOW 0 0 56 VBottom 0
WINDOW 3 32 56 VTop 0
SYMATTR InstName R237
SYMATTR Value 10k
SYMBOL res 3552 2000 R90
WINDOW 0 0 56 VBottom 0
WINDOW 3 32 56 VTop 0
SYMATTR InstName R233
SYMATTR Value 15k
SYMBOL cap 3632 2368 R90
WINDOW 0 0 32 VBottom 0
WINDOW 3 32 32 VTop 0
SYMATTR InstName C236
SYMATTR Value 33n
SYMBOL cap 3584 2112 R0
SYMATTR InstName C235
SYMATTR Value 220n
SYMBOL res 4192 1984 R90
WINDOW 0 0 56 VBottom 0
WINDOW 3 32 56 VTop 0
SYMATTR InstName R104
SYMATTR Value 7.5k
SYMBOL cap 4224 2096 R0
SYMATTR InstName C106
SYMATTR Value 220n
SYMBOL res 3616 1808 R90
WINDOW 0 0 56 VBottom 0
WINDOW 3 32 56 VTop 0
SYMATTR InstName R234
SYMATTR Value 8.2k
SYMBOL res 3872 1808 R90
WINDOW 0 0 56 VBottom 0
WINDOW 3 32 56 VTop 0
SYMATTR InstName R235
SYMATTR Value 100k
SYMBOL cap 3776 1696 R270
WINDOW 0 32 32 VTop 0
WINDOW 3 0 32 VBottom 0
SYMATTR InstName C233
SYMATTR Value 1n
SYMBOL cap 2544 1920 R270
WINDOW 0 32 32 VTop 0
WINDOW 3 0 32 VBottom 0
SYMATTR InstName C224
SYMATTR Value 1n
SYMBOL cap 240 1104 R270
WINDOW 0 32 32 VTop 0
WINDOW 3 0 32 VBottom 0
SYMATTR InstName C216
SYMATTR Value 1nF
SYMBOL res -496 2128 R0
SYMATTR InstName Rleg1
SYMATTR Value 20k
SYMBOL voltage -608 2128 R90
WINDOW 0 32 56 VTop 0
WINDOW 3 -32 56 VBottom 0
WINDOW 39 -32 56 VBottom 0
WINDOW 123 -32 56 VBottom 0
SYMATTR InstName V_common_mode
SYMATTR Value ""
SYMATTR Value2 AC 1
TEXT 1016 2624 Left 0 ;EEG input ESD protection and user protection against\nworst case input stage failure (+-Ub on op-amp inputs)
TEXT -320 2872 Left 0 !.op
TEXT 1560 2016 Left 0 ;any pnp,             any npn:\n>=40V,>=200mA,B>=200
TEXT -48 720 Left 0 ;Driven Right Leg circuit (DRL)
TEXT 1680 976 Left 0 ;preamp G=12.2
TEXT 88 2536 VLeft 0 ;Electrode+
TEXT 88 1736 VLeft 0 ;Electrode-
TEXT -824 2120 VLeft 0 ;Right Leg electrode
TEXT -784 1576 Left 0 ;patient equivalent\ncircuit - \nPatient Dummy\n(simplified: without capacitances)
TEXT -320 2912 Left 0 !*.ac dec 20 0.01 10meg\n.tran 0 0.5
TEXT 2480 1696 Left 0 ;G=40\nfc_lp=1.5kHz
TEXT 208 1672 Left 0 ;Shielded electrode cables
TEXT 672 1640 Left 0 ;modularEEG analog board\ninput protection, user protection
TEXT -80 2288 VLeft 0 ;Dummy AC voltage source
TEXT 3104 776 Left 0 ;power supply
TEXT 72 2776 Left 0 !.params C210=10pF C206=120pF R217=2k2
TEXT 72 2856 Left 0 !.step param C210 list 10pF 10nF
TEXT -320 2952 Left 0 !.options gminsteps=0
TEXT 72 2904 Left 0 !; .step param C206 list 50pF 100pF 150pF
TEXT 72 2952 Left 0 !; .step param R217 list 2k244 2k2
RECTANGLE Normal 64 2592 -784 1696 1
RECTANGLE Normal 560 2592 208 1696 1
RECTANGLE Normal 1888 2592 672 1696 1
RECTANGLE Normal 3424 1504 3104 800 1
RECTANGLE Normal 1552 1536 -48 752 1
